this is a test file...
new line...
added by 2nd session
